LTspice 24.1.10 for Windows
Circuit: C:\Users\Y9650\Documents\LTspice\MOSFET_Switch.net
Start Time: Mon Dec 29 18:25:07 2025
solver = Normal
Maximum thread count: 24
tnom = 27
temp = 27
method = trap
Direct Newton iteration for .op point succeeded.

Simulation stopped by user.
Total elapsed time: 18.565 seconds.

Files loaded:
C:\Users\Y9650\Documents\LTspice\MOSFET_Switch.net
C:\Users\Y9650\AppData\Local\LTspice\lib\cmp\standard.mos

